<?xml version="1.0" encoding="UTF-8"?>

<!-- generated on 2026-06-28 01:05:28.805906 by Eclipse SUMO osmWebWizard.py v1.27.1
<configuration>
    <net-file value="/Users/ipotekohanhassan/master-rl-feux/2026-06-28-01-05-20/osm.net.xml.gz"/>
    <output-trip-file value="/Users/ipotekohanhassan/master-rl-feux/2026-06-28-01-05-20/osm.passenger.trips.xml"/>
    <route-file value="/Users/ipotekohanhassan/master-rl-feux/2026-06-28-01-05-20/osm.passenger.rou.xml"/>
    <prefix value="veh"/>
    <trip-attributes value="departLane=&quot;best&quot;"/>
    <fringe-start-attributes value="departSpeed=&quot;max&quot;"/>
    <vehicle-class value="passenger"/>
    <lanes value="True"/>
    <fringe-factor value="5"/>
    <allow-fringe.min-length value="1000.0"/>
    <edge-permission value="passenger"/>
    <via-edge-types value="highway.motorway,highway.motorway_link,highway.trunk_link,highway.primary_link,highway.secondary_link,highway.tertiary_link"/>
    <min-distance value="300.0"/>
    <min-distance.fringe value="10.0"/>
    <remove-loops value="True"/>
    <insertion-density value="12.0"/>
</configuration>
-->

<routes xmlns:xsi="http://www.w3.org/2001/XMLSchema-instance" xsi:noNamespaceSchemaLocation="http://sumo.dlr.de/xsd/routes_file.xsd">
    <vType id="veh_passenger" vClass="passenger"/>
    <trip id="veh0" depart="0.00" from="30619634#6" to="-1137542845" departLane="best" type="veh_passenger"/>
    <trip id="veh1" depart="10.65" from="-643445231#1" to="-328833896#0" departLane="best" type="veh_passenger" departSpeed="max"/>
    <trip id="veh2" depart="21.31" from="1256487147" to="-1137542845" departLane="best" type="veh_passenger" departSpeed="max"/>
    <trip id="veh3" depart="31.96" from="30645384" to="118454607" departLane="best" type="veh_passenger" departSpeed="max"/>
    <trip id="veh4" depart="42.62" from="328833896#0" to="318042913" departLane="best" type="veh_passenger" departSpeed="max"/>
    <trip id="veh5" depart="53.27" from="738532262#2" to="-329167779#0" departLane="best" type="veh_passenger"/>
    <trip id="veh6" depart="63.93" from="-30619424#2" to="-30619422#0" departLane="best" type="veh_passenger"/>
    <trip id="veh7" depart="74.58" from="328833896#0" to="318042913" departLane="best" type="veh_passenger" departSpeed="max"/>
    <trip id="veh8" depart="85.23" from="299981295#0" to="643466772" departLane="best" type="veh_passenger" departSpeed="max"/>
    <trip id="veh9" depart="95.89" from="-397562860#4" to="-329167737" departLane="best" type="veh_passenger" departSpeed="max"/>
    <trip id="veh10" depart="106.54" from="-30619423" to="-328833896#0" departLane="best" type="veh_passenger"/>
    <trip id="veh11" depart="117.20" from="-30619634#4" to="-328840073" departLane="best" type="veh_passenger"/>
    <trip id="veh12" depart="127.85" from="30619634#5" to="-397562860#1" departLane="best" type="veh_passenger"/>
    <trip id="veh13" depart="138.51" from="-643445231#1" to="642258510" departLane="best" type="veh_passenger" departSpeed="max"/>
    <trip id="veh14" depart="149.16" from="-328833896#1" to="318042913" departLane="best" type="veh_passenger"/>
    <trip id="veh15" depart="159.81" from="299981295#1" to="318042913" departLane="best" type="veh_passenger"/>
    <trip id="veh16" depart="170.47" from="328840073" to="327743346" departLane="best" type="veh_passenger" departSpeed="max"/>
    <trip id="veh17" depart="181.12" from="1137542845" to="-328840073" departLane="best" type="veh_passenger" departSpeed="max"/>
    <trip id="veh18" depart="191.78" from="30645384" to="-755952845#1" departLane="best" type="veh_passenger" departSpeed="max"/>
    <trip id="veh19" depart="202.43" from="-643445231#1" to="-328833896#1" departLane="best" type="veh_passenger" departSpeed="max"/>
    <trip id="veh20" depart="213.09" from="299981295#1" to="-328840073" departLane="best" type="veh_passenger"/>
    <trip id="veh21" depart="223.74" from="30619423" to="397562860#3" departLane="best" type="veh_passenger"/>
    <trip id="veh22" depart="234.39" from="1256487147" to="-328833896#0" departLane="best" type="veh_passenger" departSpeed="max"/>
    <trip id="veh23" depart="245.05" from="-30619424#2" to="-1161228580" departLane="best" type="veh_passenger"/>
    <trip id="veh24" depart="255.70" from="-1117321962" to="318042913" departLane="best" type="veh_passenger" departSpeed="max"/>
    <trip id="veh25" depart="266.36" from="199416076#0" to="643445231#1" departLane="best" type="veh_passenger" departSpeed="max"/>
    <trip id="veh26" depart="277.01" from="299981295#0" to="-30645384" departLane="best" type="veh_passenger" departSpeed="max"/>
    <trip id="veh27" depart="287.67" from="30619634#0" to="-30619634#4" departLane="best" type="veh_passenger" departSpeed="max"/>
    <trip id="veh28" depart="298.32" from="328748320#0" to="118454606" departLane="best" type="veh_passenger" departSpeed="max"/>
    <trip id="veh29" depart="308.97" from="328748320#0" to="1168359536" departLane="best" type="veh_passenger" departSpeed="max"/>
    <trip id="veh30" depart="319.63" from="-1117321962" to="-329167772" departLane="best" type="veh_passenger" departSpeed="max"/>
    <trip id="veh31" depart="330.28" from="-1117321962" to="642258510" departLane="best" type="veh_passenger" departSpeed="max"/>
    <trip id="veh32" depart="340.94" from="-30619424#0" to="1117321968#0" departLane="best" type="veh_passenger"/>
    <trip id="veh33" depart="351.59" from="-199416076#1" to="327743346" departLane="best" type="veh_passenger"/>
    <trip id="veh34" depart="362.25" from="199416076#1" to="118454614#0" departLane="best" type="veh_passenger"/>
    <trip id="veh35" depart="372.90" from="-643445231#1" to="329167779#1" departLane="best" type="veh_passenger" departSpeed="max"/>
    <trip id="veh36" depart="383.55" from="1256487147" to="-30645392#0" departLane="best" type="veh_passenger" departSpeed="max"/>
    <trip id="veh37" depart="394.21" from="299981295#0" to="318042913" departLane="best" type="veh_passenger" departSpeed="max"/>
    <trip id="veh38" depart="404.86" from="1256487147" to="1130672333" departLane="best" type="veh_passenger" departSpeed="max"/>
    <trip id="veh39" depart="415.52" from="-30619634#7" to="-328833896#0" departLane="best" type="veh_passenger" departSpeed="max"/>
    <trip id="veh40" depart="426.17" from="1161228580" to="30619419" departLane="best" type="veh_passenger" departSpeed="max"/>
    <trip id="veh41" depart="436.83" from="-642258510" to="397562860#3" departLane="best" type="veh_passenger" departSpeed="max"/>
    <trip id="veh42" depart="447.48" from="-642258510" to="318042913" departLane="best" type="veh_passenger" departSpeed="max"/>
    <trip id="veh43" depart="458.13" from="-30619634#2" to="1117321967" departLane="best" type="veh_passenger"/>
    <trip id="veh44" depart="468.79" from="1256487147" to="-329167779#0" departLane="best" type="veh_passenger" departSpeed="max"/>
    <trip id="veh45" depart="479.44" from="1256487147" to="-328840073" departLane="best" type="veh_passenger" departSpeed="max"/>
    <trip id="veh46" depart="490.10" from="299981295#0" to="-1161228580" departLane="best" type="veh_passenger" departSpeed="max"/>
    <trip id="veh47" depart="500.75" from="299981295#0" to="-30645392#0" departLane="best" type="veh_passenger" departSpeed="max"/>
    <trip id="veh48" depart="511.41" from="1256487147" to="-118454616" departLane="best" type="veh_passenger" departSpeed="max"/>
    <trip id="veh49" depart="522.06" from="118454614#0" to="755952845#1" departLane="best" type="veh_passenger"/>
    <trip id="veh50" depart="532.71" from="-643445231#1" to="327743346" departLane="best" type="veh_passenger" departSpeed="max"/>
    <trip id="veh51" depart="543.37" from="199416076#0" to="1117321967" departLane="best" type="veh_passenger" departSpeed="max"/>
    <trip id="veh52" depart="554.02" from="299981295#1" to="318042913" departLane="best" type="veh_passenger"/>
    <trip id="veh53" depart="564.68" from="-327793028" to="-329167737" departLane="best" type="veh_passenger" departSpeed="max"/>
    <trip id="veh54" depart="575.33" from="-327793028" to="643445231#1" departLane="best" type="veh_passenger" departSpeed="max"/>
    <trip id="veh55" depart="585.99" from="-30619423" to="-30645384" departLane="best" type="veh_passenger"/>
    <trip id="veh56" depart="596.64" from="30619424#1" to="318042913" departLane="best" type="veh_passenger"/>
    <trip id="veh57" depart="607.29" from="299981295#0" to="642258510" departLane="best" type="veh_passenger" departSpeed="max"/>
    <trip id="veh58" depart="617.95" from="30645392#0" to="-329167737" departLane="best" type="veh_passenger" departSpeed="max"/>
    <trip id="veh59" depart="628.60" from="1137542845" to="327743346" departLane="best" type="veh_passenger" departSpeed="max"/>
    <trip id="veh60" depart="639.26" from="-30619422#0" to="-30645392#0" departLane="best" type="veh_passenger"/>
    <trip id="veh61" depart="649.91" from="-643445231#1" to="642258510" departLane="best" type="veh_passenger" departSpeed="max"/>
    <trip id="veh62" depart="660.57" from="328840073" to="318042913" departLane="best" type="veh_passenger" departSpeed="max"/>
    <trip id="veh63" depart="671.22" from="30619634#0" to="755952845#1" departLane="best" type="veh_passenger" departSpeed="max"/>
    <trip id="veh64" depart="681.87" from="30645384" to="-1137542845" departLane="best" type="veh_passenger" departSpeed="max"/>
    <trip id="veh65" depart="692.53" from="328833896#2" to="-329167737" departLane="best" type="veh_passenger"/>
    <trip id="veh66" depart="703.18" from="30645384" to="642258510" departLane="best" type="veh_passenger" departSpeed="max"/>
    <trip id="veh67" depart="713.84" from="-30619634#7" to="-30619424#2" departLane="best" type="veh_passenger" departSpeed="max"/>
    <trip id="veh68" depart="724.49" from="328748320#0" to="-30645392#0" departLane="best" type="veh_passenger" departSpeed="max"/>
    <trip id="veh69" depart="735.15" from="30619634#5" to="-328840073" departLane="best" type="veh_passenger"/>
    <trip id="veh70" depart="745.80" from="299981295#0" to="397562860#3" departLane="best" type="veh_passenger" departSpeed="max"/>
    <trip id="veh71" depart="756.45" from="1256487147" to="-328840073" departLane="best" type="veh_passenger" departSpeed="max"/>
    <trip id="veh72" depart="767.11" from="-1117321962" to="327743346" departLane="best" type="veh_passenger" departSpeed="max"/>
    <trip id="veh73" depart="777.76" from="30619634#6" to="-328840073" departLane="best" type="veh_passenger"/>
    <trip id="veh74" depart="788.42" from="328748320#0" to="118454614#0" departLane="best" type="veh_passenger" departSpeed="max"/>
    <trip id="veh75" depart="799.07" from="1256487147" to="-1137542845" departLane="best" type="veh_passenger" departSpeed="max"/>
    <trip id="veh76" depart="809.73" from="-30619422#1" to="397562860#1" departLane="best" type="veh_passenger"/>
    <trip id="veh77" depart="820.38" from="-327793028" to="-30619634#1" departLane="best" type="veh_passenger" departSpeed="max"/>
    <trip id="veh78" depart="831.03" from="1137542845" to="397562860#3" departLane="best" type="veh_passenger" departSpeed="max"/>
    <trip id="veh79" depart="841.69" from="328748320#0" to="397562860#1" departLane="best" type="veh_passenger" departSpeed="max"/>
    <trip id="veh80" depart="852.34" from="-1117321962" to="318042913" departLane="best" type="veh_passenger" departSpeed="max"/>
    <trip id="veh81" depart="863.00" from="328833896#0" to="-328840073" departLane="best" type="veh_passenger" departSpeed="max"/>
    <trip id="veh82" depart="873.65" from="199416076#0" to="-329167772" departLane="best" type="veh_passenger" departSpeed="max"/>
    <trip id="veh83" depart="884.31" from="-1117321962" to="-30645392#0" departLane="best" type="veh_passenger" departSpeed="max"/>
    <trip id="veh84" depart="894.96" from="769567696" to="-329167737" departLane="best" type="veh_passenger"/>
    <trip id="veh85" depart="905.61" from="30619634#6" to="-907577402" departLane="best" type="veh_passenger"/>
    <trip id="veh86" depart="916.27" from="839740110" to="-30645384" departLane="best" type="veh_passenger"/>
    <trip id="veh87" depart="926.92" from="328748320#0" to="-329167772" departLane="best" type="veh_passenger" departSpeed="max"/>
    <trip id="veh88" depart="937.58" from="30619634#0" to="1130672333" departLane="best" type="veh_passenger" departSpeed="max"/>
    <trip id="veh89" depart="948.23" from="-643445231#0" to="318042913" departLane="best" type="veh_passenger"/>
    <trip id="veh90" depart="958.89" from="-1117321962" to="642258510" departLane="best" type="veh_passenger" departSpeed="max"/>
    <trip id="veh91" depart="969.54" from="299981295#0" to="318042913" departLane="best" type="veh_passenger" departSpeed="max"/>
    <trip id="veh92" depart="980.19" from="30645384" to="-329167779#0" departLane="best" type="veh_passenger" departSpeed="max"/>
    <trip id="veh93" depart="990.85" from="328748320#0" to="-329167737" departLane="best" type="veh_passenger" departSpeed="max"/>
    <trip id="veh94" depart="1001.50" from="1137542845" to="-907577402" departLane="best" type="veh_passenger" departSpeed="max"/>
    <trip id="veh95" depart="1012.16" from="1256487147" to="-329167737" departLane="best" type="veh_passenger" departSpeed="max"/>
    <trip id="veh96" depart="1022.81" from="-30619634#7" to="-907577402" departLane="best" type="veh_passenger" departSpeed="max"/>
    <trip id="veh97" depart="1033.47" from="643445231#0" to="318042913" departLane="best" type="veh_passenger"/>
    <trip id="veh98" depart="1044.12" from="-1117321962" to="-329167737" departLane="best" type="veh_passenger" departSpeed="max"/>
    <trip id="veh99" depart="1054.77" from="30645384" to="1117321967" departLane="best" type="veh_passenger" departSpeed="max"/>
    <trip id="veh100" depart="1065.43" from="1256487147" to="-30645392#0" departLane="best" type="veh_passenger" departSpeed="max"/>
    <trip id="veh101" depart="1076.08" from="199416076#1" to="397562860#3" departLane="best" type="veh_passenger"/>
    <trip id="veh102" depart="1086.74" from="328833896#0" to="-30645384" departLane="best" type="veh_passenger" departSpeed="max"/>
    <trip id="veh103" depart="1097.39" from="-30619424#0" to="1130672333" departLane="best" type="veh_passenger"/>
    <trip id="veh104" depart="1108.05" from="30619634#5" to="-329167779#0" departLane="best" type="veh_passenger"/>
    <trip id="veh105" depart="1118.70" from="328833896#2" to="327743346" departLane="best" type="veh_passenger"/>
    <trip id="veh106" depart="1129.35" from="-642258510" to="1117321968#0" departLane="best" type="veh_passenger" departSpeed="max"/>
    <trip id="veh107" depart="1140.01" from="299981295#0" to="-328833896#1" departLane="best" type="veh_passenger" departSpeed="max"/>
    <trip id="veh108" depart="1150.66" from="30645384" to="-1137542845" departLane="best" type="veh_passenger" departSpeed="max"/>
    <trip id="veh109" depart="1161.32" from="328748320#0" to="327743346" departLane="best" type="veh_passenger" departSpeed="max"/>
    <trip id="veh110" depart="1171.97" from="-328833896#2" to="643445231#1" departLane="best" type="veh_passenger"/>
    <trip id="veh111" depart="1182.63" from="299981295#0" to="-1161228580" departLane="best" type="veh_passenger" departSpeed="max"/>
    <trip id="veh112" depart="1193.28" from="30619424#1" to="643445231#1" departLane="best" type="veh_passenger"/>
    <trip id="veh113" depart="1203.93" from="328748320#0" to="1130672333" departLane="best" type="veh_passenger" departSpeed="max"/>
    <trip id="veh114" depart="1214.59" from="328840073" to="118454614#0" departLane="best" type="veh_passenger" departSpeed="max"/>
    <trip id="veh115" depart="1225.24" from="199416076#1" to="-328840073" departLane="best" type="veh_passenger"/>
    <trip id="veh116" depart="1235.90" from="328748320#0" to="1130672333" departLane="best" type="veh_passenger" departSpeed="max"/>
    <trip id="veh117" depart="1246.55" from="30619634#2" to="-328840073" departLane="best" type="veh_passenger"/>
    <trip id="veh118" depart="1257.21" from="-30619422#1" to="-329167737" departLane="best" type="veh_passenger"/>
    <trip id="veh119" depart="1267.86" from="-643445231#1" to="-329167772" departLane="best" type="veh_passenger" departSpeed="max"/>
    <trip id="veh120" depart="1278.51" from="299981295#0" to="-30619634#1" departLane="best" type="veh_passenger" departSpeed="max"/>
    <trip id="veh121" depart="1289.17" from="-642258510" to="318042913" departLane="best" type="veh_passenger" departSpeed="max"/>
    <trip id="veh122" depart="1299.82" from="1256487147" to="-30645392#0" departLane="best" type="veh_passenger" departSpeed="max"/>
    <trip id="veh123" depart="1310.48" from="1256487147" to="397562860#3" departLane="best" type="veh_passenger" departSpeed="max"/>
    <trip id="veh124" depart="1321.13" from="30619423" to="318042913" departLane="best" type="veh_passenger"/>
    <trip id="veh125" depart="1331.79" from="329167737" to="327743346" departLane="best" type="veh_passenger" departSpeed="max"/>
    <trip id="veh126" depart="1342.44" from="1161228580" to="327743346" departLane="best" type="veh_passenger" departSpeed="max"/>
    <trip id="veh127" depart="1353.09" from="1256487147" to="327743346" departLane="best" type="veh_passenger" departSpeed="max"/>
    <trip id="veh128" depart="1363.75" from="299981295#0" to="30619423" departLane="best" type="veh_passenger" departSpeed="max"/>
    <trip id="veh129" depart="1374.40" from="1256487147" to="-1137542845" departLane="best" type="veh_passenger" departSpeed="max"/>
    <trip id="veh130" depart="1385.06" from="1161228580" to="318042913" departLane="best" type="veh_passenger" departSpeed="max"/>
    <trip id="veh131" depart="1395.71" from="1256487147" to="-30645384" departLane="best" type="veh_passenger" departSpeed="max"/>
    <trip id="veh132" depart="1406.37" from="30619634#2" to="-1137542845" departLane="best" type="veh_passenger"/>
    <trip id="veh133" depart="1417.02" from="1256487147" to="1524206042" departLane="best" type="veh_passenger" departSpeed="max"/>
    <trip id="veh134" depart="1427.67" from="-30619634#7" to="1117321967" departLane="best" type="veh_passenger" departSpeed="max"/>
    <trip id="veh135" depart="1438.33" from="-397562860#4" to="-329167772" departLane="best" type="veh_passenger" departSpeed="max"/>
    <trip id="veh136" depart="1448.98" from="328748320#0" to="-738532262#1" departLane="best" type="veh_passenger" departSpeed="max"/>
    <trip id="veh137" depart="1459.64" from="30645384" to="327743346" departLane="best" type="veh_passenger" departSpeed="max"/>
    <trip id="veh138" depart="1470.29" from="30645384" to="327743346" departLane="best" type="veh_passenger" departSpeed="max"/>
    <trip id="veh139" depart="1480.95" from="643466772" to="-30645392#0" departLane="best" type="veh_passenger"/>
    <trip id="veh140" depart="1491.60" from="-30619634#7" to="318042913" departLane="best" type="veh_passenger" departSpeed="max"/>
    <trip id="veh141" depart="1502.25" from="328833896#2" to="643445231#1" departLane="best" type="veh_passenger"/>
    <trip id="veh142" depart="1512.91" from="-30619634#5" to="-1137542845" departLane="best" type="veh_passenger"/>
    <trip id="veh143" depart="1523.56" from="1137542845" to="318042913" departLane="best" type="veh_passenger" departSpeed="max"/>
    <trip id="veh144" depart="1534.22" from="738532262#2" to="-755952845#1" departLane="best" type="veh_passenger"/>
    <trip id="veh145" depart="1544.87" from="-30619634#4" to="327743346" departLane="best" type="veh_passenger"/>
    <trip id="veh146" depart="1555.53" from="-30619634#7" to="738532262#2" departLane="best" type="veh_passenger" departSpeed="max"/>
    <trip id="veh147" depart="1566.18" from="328748320#0" to="-329167779#0" departLane="best" type="veh_passenger" departSpeed="max"/>
    <trip id="veh148" depart="1576.83" from="1256487147" to="-397562860#2" departLane="best" type="veh_passenger" departSpeed="max"/>
    <trip id="veh149" depart="1587.49" from="-30619634#5" to="643445231#1" departLane="best" type="veh_passenger"/>
    <trip id="veh150" depart="1598.14" from="328748320#0" to="643445231#1" departLane="best" type="veh_passenger" departSpeed="max"/>
    <trip id="veh151" depart="1608.80" from="-643445231#1" to="327743346" departLane="best" type="veh_passenger" departSpeed="max"/>
    <trip id="veh152" depart="1619.45" from="299981295#0" to="1117321968#0" departLane="best" type="veh_passenger" departSpeed="max"/>
    <trip id="veh153" depart="1630.11" from="1256487147" to="318042913" departLane="best" type="veh_passenger" departSpeed="max"/>
    <trip id="veh154" depart="1640.76" from="-397562860#4" to="327743346" departLane="best" type="veh_passenger" departSpeed="max"/>
    <trip id="veh155" depart="1651.41" from="-1117321962" to="643445231#1" departLane="best" type="veh_passenger" departSpeed="max"/>
    <trip id="veh156" depart="1662.07" from="-30619424#0" to="318042913" departLane="best" type="veh_passenger"/>
    <trip id="veh157" depart="1672.72" from="299981295#0" to="1117321967" departLane="best" type="veh_passenger" departSpeed="max"/>
    <trip id="veh158" depart="1683.38" from="328748320#0" to="-329167779#0" departLane="best" type="veh_passenger" departSpeed="max"/>
    <trip id="veh159" depart="1694.03" from="299981295#0" to="318042913" departLane="best" type="veh_passenger" departSpeed="max"/>
    <trip id="veh160" depart="1704.69" from="299981295#0" to="-328840073" departLane="best" type="veh_passenger" departSpeed="max"/>
    <trip id="veh161" depart="1715.34" from="199416076#0" to="1117321967" departLane="best" type="veh_passenger" departSpeed="max"/>
    <trip id="veh162" depart="1725.99" from="328840073" to="-907577402" departLane="best" type="veh_passenger" departSpeed="max"/>
    <trip id="veh163" depart="1736.65" from="299981295#0" to="1117321967" departLane="best" type="veh_passenger" departSpeed="max"/>
    <trip id="veh164" depart="1747.30" from="1256487147" to="328833896#1" departLane="best" type="veh_passenger" departSpeed="max"/>
    <trip id="veh165" depart="1757.96" from="30619634#0" to="30619424#0" departLane="best" type="veh_passenger" departSpeed="max"/>
    <trip id="veh166" depart="1768.61" from="328748320#0" to="643445231#1" departLane="best" type="veh_passenger" departSpeed="max"/>
    <trip id="veh167" depart="1779.27" from="30619424#1" to="-329167737" departLane="best" type="veh_passenger"/>
    <trip id="veh168" depart="1789.92" from="-642258510" to="318042913" departLane="best" type="veh_passenger" departSpeed="max"/>
    <trip id="veh169" depart="1800.57" from="30645384" to="642258510" departLane="best" type="veh_passenger" departSpeed="max"/>
    <trip id="veh170" depart="1811.23" from="30645384" to="397562860#3" departLane="best" type="veh_passenger" departSpeed="max"/>
    <trip id="veh171" depart="1821.88" from="-327793028" to="-329167772" departLane="best" type="veh_passenger" departSpeed="max"/>
    <trip id="veh172" depart="1832.54" from="30645392#0" to="318042913" departLane="best" type="veh_passenger" departSpeed="max"/>
    <trip id="veh173" depart="1843.19" from="-1144643427" to="1117321967" departLane="best" type="veh_passenger" departSpeed="max"/>
    <trip id="veh174" depart="1853.85" from="-30619424#2" to="643445231#1" departLane="best" type="veh_passenger"/>
    <trip id="veh175" depart="1864.50" from="30645392#0" to="-328840073" departLane="best" type="veh_passenger" departSpeed="max"/>
    <trip id="veh176" depart="1875.15" from="-1144643427" to="327743346" departLane="best" type="veh_passenger" departSpeed="max"/>
    <trip id="veh177" depart="1885.81" from="199416076#0" to="30619634#7" departLane="best" type="veh_passenger" departSpeed="max"/>
    <trip id="veh178" depart="1896.46" from="299981295#0" to="-199416076#1" departLane="best" type="veh_passenger" departSpeed="max"/>
    <trip id="veh179" depart="1907.12" from="1161228580" to="-329167779#0" departLane="best" type="veh_passenger" departSpeed="max"/>
    <trip id="veh180" depart="1917.77" from="1161228580" to="318042913" departLane="best" type="veh_passenger" departSpeed="max"/>
    <trip id="veh181" depart="1928.43" from="199416076#0" to="-329167772" departLane="best" type="veh_passenger" departSpeed="max"/>
    <trip id="veh182" depart="1939.08" from="1256487147" to="1130672333" departLane="best" type="veh_passenger" departSpeed="max"/>
    <trip id="veh183" depart="1949.73" from="299981295#0" to="-907577402" departLane="best" type="veh_passenger" departSpeed="max"/>
    <trip id="veh184" depart="1960.39" from="328748320#0" to="-30645392#0" departLane="best" type="veh_passenger" departSpeed="max"/>
    <trip id="veh185" depart="1971.04" from="299981295#0" to="642258510" departLane="best" type="veh_passenger" departSpeed="max"/>
    <trip id="veh186" depart="1981.70" from="1256487147" to="318042913" departLane="best" type="veh_passenger" departSpeed="max"/>
    <trip id="veh187" depart="1992.35" from="-30619634#7" to="643466772" departLane="best" type="veh_passenger" departSpeed="max"/>
    <trip id="veh188" depart="2003.01" from="30619634#0" to="-328833896#0" departLane="best" type="veh_passenger" departSpeed="max"/>
    <trip id="veh189" depart="2013.66" from="907577402" to="397562860#3" departLane="best" type="veh_passenger" departSpeed="max"/>
    <trip id="veh190" depart="2024.31" from="328840073" to="1130672333" departLane="best" type="veh_passenger" departSpeed="max"/>
    <trip id="veh191" depart="2034.97" from="328748320#0" to="1130672333" departLane="best" type="veh_passenger" departSpeed="max"/>
    <trip id="veh192" depart="2045.62" from="299981295#0" to="-755952840" departLane="best" type="veh_passenger" departSpeed="max"/>
    <trip id="veh193" depart="2056.28" from="-643445231#1" to="327743346" departLane="best" type="veh_passenger" departSpeed="max"/>
    <trip id="veh194" depart="2066.93" from="1256487147" to="642258510" departLane="best" type="veh_passenger" departSpeed="max"/>
    <trip id="veh195" depart="2077.59" from="299981295#0" to="327793028" departLane="best" type="veh_passenger" departSpeed="max"/>
    <trip id="veh196" depart="2088.24" from="-643445231#1" to="-329167737" departLane="best" type="veh_passenger" departSpeed="max"/>
    <trip id="veh197" depart="2098.89" from="30619423" to="839740110" departLane="best" type="veh_passenger"/>
    <trip id="veh198" depart="2109.55" from="299981295#0" to="-30619634#2" departLane="best" type="veh_passenger" departSpeed="max"/>
    <trip id="veh199" depart="2120.20" from="299981295#0" to="118454607" departLane="best" type="veh_passenger" departSpeed="max"/>
    <trip id="veh200" depart="2130.86" from="199416076#0" to="-329167772" departLane="best" type="veh_passenger" departSpeed="max"/>
    <trip id="veh201" depart="2141.51" from="328748320#0" to="-1161228580" departLane="best" type="veh_passenger" departSpeed="max"/>
    <trip id="veh202" depart="2152.17" from="30619424#0" to="328840073" departLane="best" type="veh_passenger"/>
    <trip id="veh203" depart="2162.82" from="299981295#0" to="1117321967" departLane="best" type="veh_passenger" departSpeed="max"/>
    <trip id="veh204" depart="2173.47" from="328748320#0" to="-907577402" departLane="best" type="veh_passenger" departSpeed="max"/>
    <trip id="veh205" depart="2184.13" from="199416076#0" to="643445231#1" departLane="best" type="veh_passenger" departSpeed="max"/>
    <trip id="veh206" depart="2194.78" from="1161228580" to="318042913" departLane="best" type="veh_passenger" departSpeed="max"/>
    <trip id="veh207" depart="2205.44" from="118454614#0" to="-329167772" departLane="best" type="veh_passenger"/>
    <trip id="veh208" depart="2216.09" from="328748320#0" to="327743346" departLane="best" type="veh_passenger" departSpeed="max"/>
    <trip id="veh209" depart="2226.75" from="328748320#0" to="1117321967" departLane="best" type="veh_passenger" departSpeed="max"/>
    <trip id="veh210" depart="2237.40" from="-1144643427" to="327743346" departLane="best" type="veh_passenger" departSpeed="max"/>
    <trip id="veh211" depart="2248.05" from="-642258510" to="397562860#3" departLane="best" type="veh_passenger" departSpeed="max"/>
    <trip id="veh212" depart="2258.71" from="-30645392#2" to="1117321967" departLane="best" type="veh_passenger"/>
    <trip id="veh213" depart="2269.36" from="-643445231#0" to="-328840073" departLane="best" type="veh_passenger"/>
    <trip id="veh214" depart="2280.02" from="-1117321962" to="327743346" departLane="best" type="veh_passenger" departSpeed="max"/>
    <trip id="veh215" depart="2290.67" from="-327793028" to="1117321967" departLane="best" type="veh_passenger" departSpeed="max"/>
    <trip id="veh216" depart="2301.33" from="1161228580" to="30619419" departLane="best" type="veh_passenger" departSpeed="max"/>
    <trip id="veh217" depart="2311.98" from="299981295#0" to="-328833896#0" departLane="best" type="veh_passenger" departSpeed="max"/>
    <trip id="veh218" depart="2322.63" from="907577402" to="-329167737" departLane="best" type="veh_passenger" departSpeed="max"/>
    <trip id="veh219" depart="2333.29" from="-643445231#1" to="1524206042" departLane="best" type="veh_passenger" departSpeed="max"/>
    <trip id="veh220" depart="2343.94" from="30645392#0" to="327743346" departLane="best" type="veh_passenger" departSpeed="max"/>
    <trip id="veh221" depart="2354.60" from="299981295#0" to="397562860#3" departLane="best" type="veh_passenger" departSpeed="max"/>
    <trip id="veh222" depart="2365.25" from="-738532262#1" to="327743346" departLane="best" type="veh_passenger"/>
    <trip id="veh223" depart="2375.91" from="30619634#0" to="-329167779#0" departLane="best" type="veh_passenger" departSpeed="max"/>
    <trip id="veh224" depart="2386.56" from="30645392#0" to="318042913" departLane="best" type="veh_passenger" departSpeed="max"/>