<?xml version="1.0" encoding="UTF-8"?>

<!-- generated on 2026-06-28T01:05:28.345341+00:00 by Eclipse SUMO netconvert 1.27.1
<netconvertConfiguration xmlns:xsi="http://www.w3.org/2001/XMLSchema-instance" xsi:noNamespaceSchemaLocation="http://sumo.dlr.de/xsd/netconvertConfiguration.xsd">

    <input>
        <type-files value="${SUMO_HOME}/data/typemap/osmNetconvert.typ.xml"/>
        <osm-files value="osm_bbox.osm.xml.gz"/>
    </input>

    <output>
        <output-file value="osm.net.xml.gz"/>
        <output.street-names value="true"/>
        <output.original-names value="true"/>
    </output>

    <projection>
        <proj.utm value="true"/>
    </projection>

    <processing>
        <geometry.remove value="true"/>
    </processing>

    <tls_building>
        <tls.discard-simple value="true"/>
        <tls.join value="true"/>
        <tls.guess-signals value="true"/>
        <tls.default-type value="actuated"/>
    </tls_building>

    <ramp_guessing>
        <ramps.guess value="true"/>
    </ramp_guessing>

    <edge_removal>
        <keep-edges.by-vclass value="passenger"/>
    </edge_removal>

    <junctions>
        <junctions.join value="true"/>
    </junctions>

</netconvertConfiguration>
-->

<net version="1.20" junctionCornerDetail="5" limitTurnSpeed="5.50" xmlns:xsi="http://www.w3.org/2001/XMLSchema-instance" xsi:noNamespaceSchemaLocation="http://sumo.dlr.de/xsd/net_file.xsd">

    <location netOffset="-392780.78,-592028.24" convBoundary="0.00,0.00,2190.27,1931.58" origBoundary="-3.967711,5.355355,-3.947953,5.372838" projParameter="+proj=utm +zone=30 +ellps=WGS84 +datum=WGS84 +units=m +no_defs"/>

    <type id="highway.primary" priority="12" numLanes="2" speed="27.78" disallow="tram rail_urban rail rail_electric rail_fast ship container cable_car subway aircraft wheelchair scooter drone" oneway="0"/>
    <type id="highway.residential" priority="3" numLanes="1" speed="13.89" disallow="tram rail_urban rail rail_electric rail_fast ship container cable_car subway aircraft wheelchair scooter drone" oneway="0"/>
    <type id="highway.secondary" priority="11" numLanes="1" speed="27.78" disallow="tram rail_urban rail rail_electric rail_fast ship container cable_car subway aircraft wheelchair scooter drone" oneway="0"/>
    <type id="highway.tertiary" priority="10" numLanes="1" speed="22.22" disallow="tram rail_urban rail rail_electric rail_fast ship container cable_car subway aircraft wheelchair scooter drone" oneway="0"/>

    <edge id=":1050175578_0" function="internal">
        <lane id=":1050175578_0_0" index="0" disallow="tram rail_urban rail rail_electric rail_fast ship container cable_car subway aircraft wheelchair scooter drone" speed="3.65" length="4.67" shape="-0.47,608.95 -1.38,607.83 -1.53,606.95 -0.91,606.30 0.47,605.89"/>
    </edge>
    <edge id=":10603671213_0" function="internal">
        <lane id=":10603671213_0_0" index="0" disallow="tram rail_urban rail rail_electric rail_fast ship container cable_car subway aircraft wheelchair scooter drone" speed="3.65" length="4.67" shape="922.89,761.60 922.28,760.29 922.35,759.40 923.11,758.92 924.55,758.86"/>
    </edge>
    <edge id=":10800532666_0" function="internal">
        <lane id=":10800532666_0_0" index="0" disallow="tram rail_urban rail rail_electric rail_fast ship container cable_car subway aircraft wheelchair scooter drone" speed="3.65" length="4.67" shape="699.01,829.88 697.95,830.86 697.08,831.07 696.40,830.49 695.89,829.14"/>
    </edge>
    <edge id=":11104305247_0" function="internal">
        <lane id=":11104305247_0_0" index="0" disallow="tram rail_urban rail rail_electric rail_fast ship container cable_car subway aircraft wheelchair scooter drone" speed="3.65" length="4.67" shape="704.37,565.35 703.91,563.99 704.09,563.11 704.89,562.72 706.33,562.83"/>
    </edge>
    <edge id=":2094161392_0" function="internal">
        <lane id=":2094161392_0_0" index="0" disallow="tram rail_urban rail rail_electric rail_fast ship container cable_car subway aircraft wheelchair scooter drone" speed="3.65" length="4.67" shape="735.03,0.79 735.13,-0.65 735.63,-1.39 736.53,-1.44 737.81,-0.79"/>
    </edge>
    <edge id=":2094161393_0" function="internal">
        <lane id=":2094161393_0_0" index="0" disallow="tram rail_urban rail rail_electric rail_fast ship container cable_car subway aircraft wheelchair scooter drone" speed="6.40" length="9.04" shape="905.34,273.93 903.72,272.03 901.90,271.15 899.88,271.27 897.66,272.41"/>
    </edge>
    <edge id=":2094161393_1" function="internal">
        <lane id=":2094161393_1_0" index="0" disallow="tram rail_urban rail rail_electric rail_fast ship container cable_car subway aircraft wheelchair scooter drone" speed="8.33" length="14.41" shape="905.34,273.93 897.65,261.75"/>
    </edge>
    <edge id=":2094161393_2" function="internal">
        <lane id=":2094161393_2_0" index="0" disallow="tram rail_urban rail rail_electric rail_fast ship container cable_car subway aircraft wheelchair scooter drone" speed="3.65" length="4.67" shape="905.34,273.93 905.37,272.49 905.83,271.72 906.72,271.63 908.04,272.22"/>
    </edge>
    <edge id=":2094161393_3" function="internal">
        <lane id=":2094161393_3_0" index="0" disallow="tram rail_urban rail rail_electric rail_fast ship container cable_car subway aircraft wheelchair scooter drone" speed="8.33" length="14.40" shape="900.35,260.04 908.04,272.22"/>
    </edge>
    <edge id=":2094161393_4" function="internal">
        <lane id=":2094161393_4_0" index="0" disallow="tram rail_urban rail rail_electric rail_fast ship container cable_car subway aircraft wheelchair scooter drone" speed="8.18" length="14.26" shape="900.35,260.04 901.89,263.53 901.96,266.75 900.55,269.71 897.66,272.41"/>
    </edge>
    <edge id=":2094161393_5" function="internal">
        <lane id=":2094161393_5_0" index="0" disallow="tram rail_urban rail rail_electric rail_fast ship container cable_car subway aircraft wheelchair scooter drone" speed="3.65" length="4.67" shape="900.35,260.04 900.32,261.49 899.85,262.25 898.96,262.34 897.65,261.75"/>
    </edge>
    <edge id=":2094161393_6" function="internal">
        <lane id=":2094161393_6_0" index="0" disallow="tram rail_urban rail rail_electric rail_fast ship container cable_car subway aircraft wheelchair scooter drone" speed="6.72" length="9.30" shape="895.81,269.79 897.72,268.02 898.66,266.09 898.63,264.00 897.65,261.75"/>
    </edge>
    <edge id=":2094161393_7" function="internal">
        <lane id=":2094161393_7_0" index="0" disallow="tram rail_urban rail rail_electric rail_fast ship container cable_car subway aircraft wheelchair scooter drone" speed="7.91" length="14.39" shape="895.81,269.79 899.35,267.99 902.56,267.79 905.46,269.20 908.04,272.22"/>
    </edge>
    <edge id=":2094161393_8" function="internal">
        <lane id=":2094161393_8_0" index="0" disallow="tram rail_urban rail rail_electric rail_fast ship container cable_car subway aircraft wheelchair scooter drone" speed="3.65" length="4.67" shape="895.81,269.79 897.25,269.75 898.04,270.18 898.17,271.06 897.66,272.41"/>
    </edge>
    <edge id=":2094161404_0" function="internal">
        <lane id=":2094161404_0_0" index="0" disallow="tram rail_urban rail rail_electric rail_fast ship container cable_car subway aircraft wheelchair scooter drone" speed="13.89" length="14.31" shape="1006.35,540.04 992.63,535.97"/>
    </edge>
    <edge id=":2094161404_1" function="internal">
        <lane id=":2094161404_1_0" index="0" disallow="tram rail_urban rail rail_electric rail_fast ship container cable_car subway aircraft wheelchair scooter drone" speed="8.00" length="4.01" shape="1006.35,540.04 1002.83,538.39 1002.75,538.30"/>
    </edge>
    <edge id=":2094161404_2" function="internal">
        <lane id=":2094161404_2_0" index="0" disallow="tram rail_urban rail rail_electric rail_fast ship container cable_car subway aircraft wheelchair scooter drone" speed="3.65" length="1.44" shape="1006.35,540.04 1005.44,538.92"/>
    </edge>
    <edge id=":2094161404_9" function="internal">
        <lane id=":2094161404_9_0" index="0" disallow="tram rail_urban rail rail_electric rail_fast ship container cable_car subway aircraft wheelchair scooter drone" speed="8.00" length="10.17" shape="1002.75,538.30 1000.68,536.01 999.90,532.91 1000.49,529.07"/>
    </edge>
    <edge id=":2094161404_10" function="internal">
        <lane id=":2094161404_10_0" index="0" disallow="tram rail_urban rail rail_electric rail_fast ship container cable_car subway aircraft wheelchair scooter drone" speed="3.65" length="3.23" shape="1005.44,538.92 1005.29,538.04 1005.90,537.39 1007.28,536.97"/>
    </edge>
    <edge id=":2094161404_3" function="internal">
        <lane id=":2094161404_3_0" index="0" disallow="tram rail_urban rail rail_electric rail_fast ship container cable_car subway aircraft wheelchair scooter drone" speed="6.51" length="9.02" shape="1003.55,529.99 1003.18,532.44 1003.68,534.41 1005.04,535.93 1007.28,536.97"/>
    </edge>
    <edge id=":2094161404_4" function="internal">
        <lane id=":2094161404_4_0" index="0" disallow="tram rail_urban rail rail_electric rail_fast ship container cable_car subway aircraft wheelchair scooter drone" speed="8.03" length="14.16" shape="1003.55,529.99 1001.92,533.51 999.55,535.68 996.45,536.50 992.63,535.97"/>
    </edge>
    <edge id=":2094161404_5" function="internal">
        <lane id=":2094161404_5_0" index="0" disallow="tram rail_urban rail rail_electric rail_fast ship container cable_car subway aircraft wheelchair scooter drone" speed="3.65" length="4.67" shape="1003.55,529.99 1002.44,530.91 1001.56,531.06 1000.91,530.45 1000.49,529.07"/>
    </edge>
    <edge id=":2094161404_6" function="internal">
        <lane id=":2094161404_6_0" index="0" disallow="tram rail_urban rail rail_electric rail_fast ship container cable_car subway aircraft wheelchair scooter drone" speed="6.54" length="9.05" shape="993.51,532.89 995.96,533.23 997.93,532.71 999.45,531.32 1000.49,529.07"/>
    </edge>
    <edge id=":2094161404_7" function="internal">
        <lane id=":2094161404_7_0" index="0" disallow="tram rail_urban rail rail_electric rail_fast ship container cable_car subway aircraft wheelchair scooter drone" speed="13.89" length="14.36" shape="993.51,532.89 1007.28,536.97"/>
    </edge>
    <edge id=":2094161404_8" function="internal">
        <lane id=":2094161404_8_0" index="0" disallow="tram rail_urban rail rail_electric rail_fast ship container cable_car subway aircraft wheelchair scooter drone" speed="3.65" length="1.44" shape="993.51,532.89 994.44,533.99"/>
    </edge>
    <edge id=":2094161404_11" function="internal">
        <lane id=":2094161404_11_0" index="0" disallow="tram rail_urban rail rail_electric rail_fast ship container cable_car subway aircraft wheelchair scooter drone" speed="3.65" length="3.23" shape="994.44,533.99 994.61,534.87 994.00,535.53 992.63,535.97"/>
    </edge>
    <edge id=":2094161405_0" function="internal">
        <lane id=":2094161405_0_0" index="0" disallow="tram rail_urban rail rail_electric rail_fast ship container cable_car subway aircraft wheelchair scooter drone" speed="6.51" length="9.03" shape="995.62,347.29 993.17,346.91 991.19,347.40 989.68,348.76 988.62,351.01"/>
    </edge>
    <edge id=":2094161405_1" function="internal">
        <lane id=":2094161405_1_0" index="0" disallow="tram rail_urban rail rail_electric rail_fast ship container cable_car subway aircraft wheelchair scooter drone" speed="8.33" length="14.40" shape="995.62,347.29 981.86,343.06"/>
    </edge>
    <edge id=":2094161405_2" function="internal">
        <lane id=":2094161405_2_0" index="0" disallow="tram rail_urban rail rail_electric rail_fast ship container cable_car subway aircraft wheelchair scooter drone" speed="3.65" length="4.67" shape="995.62,347.29 994.70,346.17 994.56,345.29 995.17,344.64 996.56,344.23"/>
    </edge>
    <edge id=":2094161405_3" function="internal">
        <lane id=":2094161405_3_0" index="0" disallow="tram rail_urban rail rail_electric rail_fast ship container cable_car subway aircraft wheelchair scooter drone" speed="8.33" length="14.39" shape="982.80,340.00 996.56,344.23"/>
    </edge>
    <edge id=":2094161405_4" function="internal">
        <lane id=":2094161405_4_0" index="0" disallow="tram rail_urban rail rail_electric rail_fast ship container cable_car subway aircraft wheelchair scooter drone" speed="8.01" length="14.19" shape="982.80,340.00 986.31,341.66 988.45,344.05 989.22,347.16 988.62,351.01"/>
    </edge>
    <edge id=":2094161405_5" function="internal">
        <lane id=":2094161405_5_0" index="0" disallow="tram rail_urban rail rail_electric rail_fast ship container cable_car subway aircraft wheelchair scooter drone" speed="3.65" length="4.67" shape="982.80,340.00 983.71,341.12 983.86,342.00 983.24,342.65 981.86,343.06"/>
    </edge>
    <edge id=":2094161405_6" function="internal">
        <lane id=":2094161405_6_0" index="0" disallow="tram rail_urban rail rail_electric rail_fast ship container cable_car subway aircraft wheelchair scooter drone" speed="6.52" length="9.04" shape="985.56,350.07 985.95,347.62 985.46,345.64 984.09,344.12 981.86,343.06"/>
    </edge>
    <edge id=":2094161405_7" function="internal">
        <lane id=":2094161405_7_0" index="0" disallow="tram rail_urban rail rail_electric rail_fast ship container cable_car subway aircraft wheelchair scooter drone" speed="8.00" length="14.20" shape="985.56,350.07 987.22,346.55 989.60,344.40 992.71,343.63 996.56,344.23"/>
    </edge>
    <edge id=":2094161405_8" function="internal">
        <lane id=":2094161405_8_0" index="0" disallow="tram rail_urban rail rail_electric rail_fast ship container cable_car subway aircraft wheelchair scooter drone" speed="3.65" length="4.67" shape="985.56,350.07 986.68,349.16 987.56,349.01 988.21,349.62 988.62,351.01"/>
    </edge>
    <edge id=":2492291740_0" function="internal">
        <lane id=":2492291740_0_0" index="0" disallow="tram rail_urban rail rail_electric rail_fast ship container cable_car subway aircraft wheelchair scooter drone" speed="3.65" length="4.67" shape="1236.70,717.72 1237.39,718.99 1237.38,719.88 1236.65,720.41 1235.22,720.56"/>
    </edge>
    <edge id=":3346028875_0" function="internal">
        <lane id=":3346028875_0_0" index="0" disallow="tram rail_urban rail rail_electric rail_fast ship container cable_car subway aircraft wheelchair scooter drone" speed="3.65" length="4.67" shape="883.94,410.54 882.50,410.62 881.71,410.21 881.55,409.33 882.04,407.98"/>
    </edge>
    <edge id=":3356572954_0" function="internal">
        <lane id=":3356572954_0_0" index="0" disallow="tram rail_urban rail rail_electric rail_fast ship container cable_car subway aircraft wheelchair scooter drone" speed="3.65" length="4.67" shape="794.76,600.82 795.86,599.89 796.74,599.72 797.40,600.33 797.84,601.70"/>
    </edge>
    <edge id=":3356577140_0" function="internal">
        <lane id=":3356577140_0_0" index="0" disallow="tram rail_urban rail rail_electric rail_fast ship container cable_car subway aircraft wheelchair scooter drone" speed="9.48" length="11.11" shape="747.38,782.08 746.35,779.91 744.63,778.05 742.23,776.51 739.14,775.27"/>
    </edge>
    <edge id=":3356577140_1" function="internal">
        <lane id=":3356577140_1_0" index="0" disallow="tram rail_urban rail rail_electric rail_fast ship container cable_car subway aircraft wheelchair scooter drone" speed="13.89" length="14.19" shape="747.38,782.08 746.50,778.55 746.03,775.10 746.04,771.64 746.59,768.07"/>
    </edge>
    <edge id=":3356577140_2" function="internal">
        <lane id=":3356577140_2_0" index="0" disallow="tram rail_urban rail rail_electric rail_fast ship container cable_car subway aircraft wheelchair scooter drone" speed="3.65" length="1.44" shape="747.38,782.08 747.80,780.70"/>
    </edge>
    <edge id=":3356577140_9" function="internal">
        <lane id=":3356577140_9_0" index="0" disallow="tram rail_urban rail rail_electric rail_fast ship container cable_car subway aircraft wheelchair scooter drone" speed="3.65" length="3.23" shape="747.80,780.70 748.46,780.09 749.34,780.25 750.44,781.17"/>
    </edge>
    <edge id=":3356577140_3" function="internal">
        <lane id=":3356577140_3_0" index="0" disallow="tram rail_urban rail rail_electric rail_fast ship container cable_car subway aircraft wheelchair scooter drone" speed="13.89" length="13.04" shape="749.82,768.31 749.24,771.70 749.18,774.77 749.59,777.82 750.44,781.17"/>
    </edge>
    <edge id=":3356577140_4" function="internal">
        <lane id=":3356577140_4_0" index="0" disallow="tram rail_urban rail rail_electric rail_fast ship container cable_car subway aircraft wheelchair scooter drone" speed="7.94" length="3.71" shape="749.82,768.31 748.53,771.79"/>
    </edge>
    <edge id=":3356577140_5" function="internal">
        <lane id=":3356577140_5_0" index="0" disallow="tram rail_urban rail rail_electric rail_fast ship container cable_car subway aircraft wheelchair scooter drone" speed="3.66" length="1.46" shape="749.82,768.31 748.92,769.46"/>
    </edge>
    <edge id=":3356577140_10" function="internal">
        <lane id=":3356577140_10_0" index="0" disallow="tram rail_urban rail rail_electric rail_fast ship container cable_car subway aircraft wheelchair scooter drone" speed="7.94" length="11.08" shape="748.53,771.79 748.32,772.36 746.04,774.86 742.98,775.83 739.14,775.27"/>
    </edge>
    <edge id=":3356577140_11" function="internal">
        <lane id=":3356577140_11_0" index="0" disallow="tram rail_urban rail rail_electric rail_fast ship container cable_car subway aircraft wheelchair scooter drone" speed="3.66" length="3.27" shape="748.92,769.46 748.08,769.81 747.31,769.34 746.59,768.07"/>
    </edge>
    <edge id=":3356577140_6" function="internal">
        <lane id=":3356577140_6_0" index="0" disallow="tram rail_urban rail rail_electric rail_fast ship container cable_car subway aircraft wheelchair scooter drone" speed="6.31" length="8.94" shape="740.10,772.22 742.44,772.57 744.30,771.99 745.69,770.49 746.59,768.07"/>
    </edge>
    <edge id=":3356577140_7" function="internal">
        <lane id=":3356577140_7_0" index="0" disallow="tram rail_urban rail rail_electric rail_fast ship container cable_car subway aircraft wheelchair scooter drone" speed="10.67" length="14.24" shape="740.10,772.22 743.93,773.78 746.93,775.79 749.10,778.26 750.44,781.17"/>
    </edge>
    <edge id=":3356577140_8" function="internal">
        <lane id=":3356577140_8_0" index="0" disallow="tram rail_urban rail rail_electric rail_fast ship container cable_car subway aircraft wheelchair scooter drone" speed="3.65" length="4.67" shape="740.10,772.22 741.01,773.34 741.15,774.23 740.53,774.87 739.14,775.27"/>
    </edge>
    <edge id=":3356577340_0" function="internal">
        <lane id=":3356577340_0_0" index="0" disallow="tram rail_urban rail rail_electric rail_fast ship container cable_car subway aircraft wheelchair scooter drone" speed="3.65" length="4.67" shape="913.25,824.11 912.12,825.01 911.24,825.16 910.60,824.53 910.19,823.15"/>
    </edge>
    <edge id=":3359915290_0" function="internal">
        <lane id=":3359915290_0_0" index="0" disallow="tram rail_urban rail rail_electric rail_fast ship container cable_car subway aircraft wheelchair scooter drone" speed="3.65" length="4.67" shape="512.97,561.81 514.03,560.83 514.90,560.62 515.58,561.19 516.09,562.55"/>
    </edge>
    <edge id=":3359915292_0" function="internal">
        <lane id=":3359915292_0_0" index="0" disallow="tram rail_urban rail rail_electric rail_fast ship container cable_car subway aircraft wheelchair scooter drone" speed="13.89" length="11.12" shape="649.76,564.24 646.70,574.93"/>
    </edge>
    <edge id=":3359915292_1" function="internal">
        <lane id=":3359915292_1_0" index="0" disallow="tram rail_urban rail rail_electric rail_fast ship container cable_car subway aircraft wheelchair scooter drone" speed="7.58" length="2.80" width="1.60" shape="649.76,564.24 648.45,566.72"/>
    </edge>
    <edge id=":3359915292_2" function="internal">
        <lane id=":3359915292_2_0" index="0" disallow="tram rail_urban rail rail_electric rail_fast ship container cable_car subway aircraft wheelchair scooter drone" speed="3.65" length="1.44" shape="649.76,564.24 648.65,565.16"/>
    </edge>
    <edge id=":3359915292_9" function="internal">
        <lane id=":3359915292_9_0" index="0" disallow="tram rail_urban rail rail_electric rail_fast ship container cable_car subway aircraft wheelchair scooter drone" speed="7.58" length="9.50" width="1.60" shape="648.45,566.72 646.31,568.18 643.31,568.61 639.48,568.01"/>
    </edge>
    <edge id=":3359915292_10" function="internal">
        <lane id=":3359915292_10_0" index="0" disallow="tram rail_urban rail rail_electric rail_fast ship container cable_car subway aircraft wheelchair scooter drone" speed="3.65" length="3.23" shape="648.65,565.16 647.77,565.32 647.12,564.71 646.69,563.33"/>
    </edge>
    <edge id=":3359915292_3" function="internal">
        <lane id=":3359915292_3_0" index="0" disallow="tram rail_urban rail rail_electric rail_fast ship container cable_car subway aircraft wheelchair scooter drone" speed="6.22" length="8.47" shape="639.88,566.47 642.35,566.80 644.32,566.39 645.76,565.24 646.69,563.33"/>
    </edge>
    <edge id=":3359915292_4" function="internal">
        <lane id=":3359915292_4_0" index="0" disallow="tram rail_urban rail rail_electric rail_fast ship container cable_car subway aircraft wheelchair scooter drone" speed="7.31" length="12.36" shape="639.88,566.47 643.51,567.83 645.86,569.70 646.92,572.06 646.70,574.93"/>
    </edge>
    <edge id=":3359915292_5" function="internal">
        <lane id=":3359915292_5_0" index="0" disallow="tram rail_urban rail rail_electric rail_fast ship container cable_car subway aircraft wheelchair scooter drone" speed="2.58" length="2.34" width="1.60" shape="639.88,566.47 640.36,567.00 640.45,567.44 640.16,567.78 639.48,568.01"/>
    </edge>
    <edge id=":3359915292_6" function="internal">
        <lane id=":3359915292_6_0" index="0" disallow="tram rail_urban rail rail_electric rail_fast ship container cable_car subway aircraft wheelchair scooter drone" speed="6.26" length="8.39" width="1.60" shape="643.62,574.08 643.84,571.96 643.23,570.24 641.77,568.92 639.48,568.01"/>
    </edge>
    <edge id=":3359915292_7" function="internal">
        <lane id=":3359915292_7_0" index="0" disallow="tram rail_urban rail rail_electric rail_fast ship container cable_car subway aircraft wheelchair scooter drone" speed="13.89" length="11.17" shape="643.62,574.08 646.69,563.33"/>
    </edge>
    <edge id=":3359915292_8" function="internal">
        <lane id=":3359915292_8_0" index="0" disallow="tram rail_urban rail rail_electric rail_fast ship container cable_car subway aircraft wheelchair scooter drone" speed="3.65" length="1.44" shape="643.62,574.08 644.71,573.14"/>
    </edge>
    <edge id=":3359915292_11" function="internal">
        <lane id=":3359915292_11_0" index="0" disallow="tram rail_urban rail rail_electric rail_fast ship container cable_car subway aircraft wheelchair scooter drone" speed="3.65" length="3.23" shape="644.71,573.14 645.59,572.96 646.25,573.56 646.70,574.93"/>
    </edge>
    <edge id=":3359923978_0" function="internal">
        <lane id=":3359923978_0_0" index="0" disallow="tram rail_urban rail rail_electric rail_fast ship container cable_car subway aircraft wheelchair scooter drone" speed="2.58" length="2.34" width="1.60" shape="554.91,546.01 554.43,545.48 554.34,545.04 554.63,544.70 555.31,544.47"/>
    </edge>
    <edge id=":3359923990_0" function="internal">
        <lane id=":3359923990_0_0" index="0" disallow="tram rail_urban rail rail_electric rail_fast ship container cable_car subway aircraft wheelchair scooter drone" speed="6.45" length="9.03" shape="545.19,671.10 542.73,670.81 540.78,671.39 539.35,672.84 538.44,675.15"/>
    </edge>
    <edge id=":3359923990_1" function="internal">
        <lane id=":3359923990_1_0" index="0" disallow="tram rail_urban rail rail_electric rail_fast ship container cable_car subway aircraft wheelchair scooter drone" speed="13.89" length="14.36" shape="545.19,671.10 531.37,667.23"/>
    </edge>
    <edge id=":3359923990_2" function="internal">
        <lane id=":3359923990_2_0" index="0" disallow="tram rail_urban rail rail_electric rail_fast ship container cable_car subway aircraft wheelchair scooter drone" speed="3.65" length="1.44" shape="545.19,671.10 544.24,670.02"/>
    </edge>
    <edge id=":3359923990_9" function="internal">
        <lane id=":3359923990_9_0" index="0" disallow="tram rail_urban rail rail_electric rail_fast ship container cable_car subway aircraft wheelchair scooter drone" speed="3.65" length="3.23" shape="544.24,670.02 544.06,669.15 544.65,668.48 546.01,668.01"/>
    </edge>
    <edge id=":3359923990_3" function="internal">
        <lane id=":3359923990_3_0" index="0" disallow="tram rail_urban rail rail_electric rail_fast ship container cable_car subway aircraft wheelchair scooter drone" speed="13.89" length="14.27" shape="532.27,664.16 546.01,668.01"/>
    </edge>
    <edge id=":3359923990_4" function="internal">
        <lane id=":3359923990_4_0" index="0" disallow="tram rail_urban rail rail_electric rail_fast ship container cable_car subway aircraft wheelchair scooter drone" speed="8.17" length="3.81" shape="532.27,664.16 535.73,665.76"/>
    </edge>
    <edge id=":3359923990_5" function="internal">
        <lane id=":3359923990_5_0" index="0" disallow="tram rail_urban rail rail_electric rail_fast ship container cable_car subway aircraft wheelchair scooter drone" speed="3.65" length="1.44" shape="532.27,664.16 533.20,665.27"/>
    </edge>
    <edge id=":3359923990_10" function="internal">
        <lane id=":3359923990_10_0" index="0" disallow="tram rail_urban rail rail_electric rail_fast ship container cable_car subway aircraft wheelchair scooter drone" speed="8.17" length="10.39" shape="535.73,665.76 537.91,668.12 538.81,671.25 538.44,675.15"/>
    </edge>
    <edge id=":3359923990_11" function="internal">
        <lane id=":3359923990_11_0" index="0" disallow="tram rail_urban rail rail_electric rail_fast ship container cable_car subway aircraft wheelchair scooter drone" speed="3.65" length="3.23" shape="533.20,665.27 533.35,666.15 532.74,666.80 531.37,667.23"/>
    </edge>
    <edge id=":3359923990_6" function="internal">
        <lane id=":3359923990_6_0" index="0" disallow="tram rail_urban rail rail_electric rail_fast ship container cable_car subway aircraft wheelchair scooter drone" speed="6.70" length="9.24" shape="535.32,674.41 535.58,671.86 535.00,669.81 533.60,668.27 531.37,667.23"/>
    </edge>
    <edge id=":3359923990_7" function="internal">
        <lane id=":3359923990_7_0" index="0" disallow="tram rail_urban rail rail_electric rail_fast ship container cable_car subway aircraft wheelchair scooter drone" speed="7.95" length="14.29" shape="535.32,674.41 536.76,670.75 539.02,668.47 542.11,667.55 546.01,668.01"/>
    </edge>
    <edge id=":3359923990_8" function="internal">
        <lane id=":3359923990_8_0" index="0" disallow="tram rail_urban rail rail_electric rail_fast ship container cable_car subway aircraft wheelchair scooter drone" speed="3.65" length="4.67" shape="535.32,674.41 536.38,673.43 537.25,673.22 537.94,673.80 538.44,675.15"/>
    </edge>
    <edge id=":3359924573_0" function="internal">
        <lane id=":3359924573_0_0" index="0" disallow="tram rail_urban rail rail_electric rail_fast ship container cable_car subway aircraft wheelchair scooter drone" speed="13.89" length="14.39" shape="605.83,730.93 602.40,744.90"/>
    </edge>
    <edge id=":3359924573_1" function="internal">
        <lane id=":3359924573_1_0" index="0" disallow="tram rail_urban rail rail_electric rail_fast ship container cable_car subway aircraft wheelchair scooter drone" speed="7.91" length="4.09" shape="605.83,730.93 604.33,734.61 604.25,734.69"/>
    </edge>
    <edge id=":3359924573_2" function="internal">
        <lane id=":3359924573_2_0" index="0" disallow="tram rail_urban rail rail_electric rail_fast ship container cable_car subway aircraft wheelchair scooter drone" speed="3.65" length="1.44" shape="605.83,730.93 604.76,731.90"/>
    </edge>
    <edge id=":3359924573_9" function="internal">
        <lane id=":3359924573_9_0" index="0" disallow="tram rail_urban rail rail_electric rail_fast ship container cable_car subway aircraft wheelchair scooter drone" speed="7.91" length="10.30" shape="604.25,734.69 602.03,736.86 598.91,737.69 594.98,737.08"/>
    </edge>
    <edge id=":3359924573_10" function="internal">
        <lane id=":3359924573_10_0" index="0" disallow="tram rail_urban rail rail_electric rail_fast ship container cable_car subway aircraft wheelchair scooter drone" speed="3.65" length="3.23" shape="604.76,731.90 603.89,732.10 603.21,731.51 602.72,730.16"/>
    </edge>
    <edge id=":3359924573_3" function="internal">
        <lane id=":3359924573_3_0" index="0" disallow="tram rail_urban rail rail_electric rail_fast ship container cable_car subway aircraft wheelchair scooter drone" speed="6.39" length="9.04" shape="595.91,734.02 598.38,734.40 600.33,733.88 601.78,732.47 602.72,730.16"/>
    </edge>
    <edge id=":3359924573_4" function="internal">
        <lane id=":3359924573_4_0" index="0" disallow="tram rail_urban rail rail_electric rail_fast ship container cable_car subway aircraft wheelchair scooter drone" speed="8.19" length="14.27" shape="595.91,734.02 599.51,735.67 601.78,738.03 602.75,741.11 602.40,744.90"/>
    </edge>
    <edge id=":3359924573_5" function="internal">
        <lane id=":3359924573_5_0" index="0" disallow="tram rail_urban rail rail_electric rail_fast ship container cable_car subway aircraft wheelchair scooter drone" speed="3.65" length="4.67" shape="595.91,734.02 596.83,735.13 596.98,736.02 596.36,736.66 594.98,737.08"/>
    </edge>